Questionable use of curly braces in "mnmos@0 out in gnd gnd n l=0.2u w= {factor*0.3u}"
    Error: undefined symbol in: "[factor]*0.3u"
Questionable use of curly braces in "mpmos@0 vdd in out vdd p l=0.2u w= {factor*0.72u}"
    Error: undefined symbol in: "[factor]*0.72u"
Circuit: *** SPICE deck for cell NAND_sim{sch} from library NAND

Ignoring BSIM parameter HDIF
Ignoring BSIM parameter ACM
Ignoring BSIM parameter XL
Ignoring BSIM parameter XW
Ignoring BSIM parameter HDIF
Ignoring BSIM parameter ACM
Ignoring BSIM parameter XL
Ignoring BSIM parameter XW
Error on line 20 : text.step param factor list 1 2 4 8
	 Unknown parameter "4"
Error on line 21 : mnmos@0 out in gnd gnd n l=0.2u w= (factor*0.3u)
	 Unknown parameter "factor*0.3u"
Error on line 22 : mpmos@0 vdd in out vdd p l=0.2u w= (factor*0.72u)
	 Unknown parameter "factor*0.72u"
Fatal Error: Text.step: transmission line Z0 must be given
