Circuit: *** SPICE deck for cell NAND2x1_sim{sch} from library NAND

Ignoring BSIM parameter HDIF
Ignoring BSIM parameter ACM
Ignoring BSIM parameter XL
Ignoring BSIM parameter XW
Ignoring BSIM parameter HDIF
Ignoring BSIM parameter ACM
Ignoring BSIM parameter XL
Ignoring BSIM parameter XW
Warning: Pd = 0 is less than W.
Warning: Ps = 0 is less than W.
Warning: Pd = 0 is less than W.
Warning: Ps = 0 is less than W.
Direct Newton iteration for .op point succeeded.
.step p1=0 p2=0
.step p1=3.3 p2=0
.step p1=0 p2=3.3
.step p1=3.3 p2=3.3


Measurement: outputvoltage
  step	v(f)
     1	3.3
     2	3.3
     3	3.3
     4	2.89387e-008


Date: Sat Mar 30 14:54:57 2019
Total elapsed time: 0.494 seconds.

tnom = 27
temp = 27
method = modified trap
totiter = 2093
traniter = 2082
tranpoints = 1042
accept = 1042
rejected = 0
matrix size = 8
fillins = 0
solver = Normal
Matrix Compiler1: 336 bytes object code size  0.3/0.2/[0.1]
Matrix Compiler2: 624 bytes object code size  0.2/0.3/[0.2]


